Version 4
SHEET 1 1192 680
WIRE 224 -80 -192 -80
WIRE -80 -16 -96 -16
WIRE -96 16 -96 -16
WIRE 224 64 224 -80
WIRE 224 64 160 64
WIRE -272 80 -320 80
WIRE -192 80 -192 -80
WIRE -192 80 -208 80
WIRE -80 80 -80 -16
WIRE -48 80 -80 80
WIRE 336 96 160 96
WIRE 384 96 336 96
WIRE 480 96 464 96
WIRE 512 96 480 96
WIRE 608 96 512 96
WIRE 688 96 608 96
WIRE 1008 96 944 96
WIRE 1120 96 1008 96
WIRE 1136 96 1120 96
WIRE -48 112 -64 112
WIRE 336 112 336 96
WIRE -320 128 -320 80
WIRE 176 128 160 128
WIRE 176 208 176 128
WIRE 816 240 816 192
WIRE -64 256 -64 112
WIRE 176 256 -64 256
WIRE 16 304 -144 304
WIRE 176 304 176 256
WIRE 176 304 96 304
WIRE 240 304 176 304
WIRE 480 304 480 96
WIRE 480 304 320 304
WIRE 240 384 240 304
WIRE 320 384 320 304
WIRE 320 384 304 384
FLAG -320 208 0
FLAG 176 208 0
FLAG -96 16 0
FLAG 336 176 0
FLAG 512 160 0
FLAG -192 144 0
FLAG -144 304 0
FLAG 608 160 0
FLAG 816 240 0
FLAG 1136 176 0
FLAG 1008 160 0
FLAG 1120 96 Vout
SYMBOL LM2596_ADJ2 48 96 R0
SYMATTR InstName U1
SYMBOL voltage -320 112 R0
WINDOW 123 0 0 Left 0
WINDOW 39 0 0 Left 0
SYMATTR InstName V1
SYMATTR Value 12
SYMBOL diode -272 96 R270
WINDOW 0 32 32 VTop 2
WINDOW 3 0 32 VBottom 2
SYMATTR InstName D1
SYMATTR Value DMBR340
SYMBOL cap -208 80 R0
SYMATTR InstName C1
SYMATTR Value 470µ
SYMBOL diode 352 176 R180
WINDOW 0 24 64 Left 2
WINDOW 3 24 0 Left 2
SYMATTR InstName D2
SYMATTR Value D1N5822
SYMBOL ind 480 80 R90
WINDOW 0 5 56 VBottom 2
WINDOW 3 32 56 VTop 2
SYMATTR InstName L1
SYMATTR Value 68µ
SYMBOL cap 496 96 R0
SYMATTR InstName C2
SYMATTR Value 220µ
SYMBOL res 112 288 R90
WINDOW 0 0 56 VBottom 2
WINDOW 3 32 56 VTop 2
SYMATTR InstName R1
SYMATTR Value 1k
SYMBOL res 336 288 R90
WINDOW 0 0 56 VBottom 2
WINDOW 3 32 56 VTop 2
SYMATTR InstName R2
SYMATTR Value 4.7k
SYMBOL cap 304 368 R90
WINDOW 0 0 32 VBottom 2
WINDOW 3 32 32 VTop 2
SYMATTR InstName C3
SYMATTR Value 1n
SYMBOL PowerProducts\\LT1117-5 816 96 R0
SYMATTR InstName U2
SYMBOL cap 592 96 R0
SYMATTR InstName C4
SYMATTR Value 10µ
SYMBOL res 1120 80 R0
SYMATTR InstName R3
SYMATTR Value 1k
SYMBOL cap 992 96 R0
SYMATTR InstName C5
SYMATTR Value 22µ
TEXT -320 -160 Left 2 !.model D1N5822 D(IS=5u RS=0.02 CJO=300p M=0.33 VJ=0.3 TT=8n BV=40 IBV=0.5m N=1.05)
TEXT -320 -128 Left 2 !.model DMBR340 D(IS=6u RS=0.025 CJO=250p M=0.33 VJ=0.3 TT=6n BV=40 IBV=0.5m N=1.08)
TEXT -352 440 Left 2 !.tran 0 20m 0 0.1m
